test_networks/large10kC_1ph/Loads.dss
New load.S2P Bus=2.1 Phases=1 Model=1 kV=12.47 kW=100.0 kVAr=10.0 Vminpu=0.95 Vmaxpu=1.05 Daily=LoadShapeLoadDefault
New load.S3P Bus=3.1 Phases=1 Model=1 kV=12.47 kW=100.0 kVAr=10.0 Vminpu=0.95 Vmaxpu=1.05 Daily=LoadShapeLoadDefault
New load.S4P Bus=4.1 Phases=1 Model=1 kV=12.47 kW=100.0 kVAr=10.0 Vminpu=0.95 Vmaxpu=1.05 Daily=LoadShapeLoadDefault
New load.S5P Bus=5.1 Phases=1 Model=1 kV=12.47 kW=100.0 kVAr=10.0 Vminpu=0.95 Vmaxpu=1.05 Daily=LoadShapeLoadDefault
New load.S6P Bus=6.1 Phases=1 Model=1 kV=12.47 kW=100.0 kVAr=10.0 Vminpu=0.95 Vmaxpu=1.05 Daily=LoadShapeLoadDefault
New load.S7P Bus=7.1 Phases=1 Model=1 kV=12.47 kW=100.0 kVAr=10.0 Vminpu=0.95 Vmaxpu=1.05 Daily=LoadShapeLoadDefault
New load.S8P Bus=8.1 Phases=1 Model=1 kV=12.47 kW=100.0 kVAr=10.0 Vminpu=0.95 Vmaxpu=1.05 Daily=LoadShapeLoadDefault
New load.S9P Bus=9.1 Phases=1 Model=1 kV=12.47 kW=100.0 kVAr=10.0 Vminpu=0.95 Vmaxpu=1.05 Daily=LoadShapeLoadDefault
New load.S10P Bus=10.1 Phases=1 Model=1 kV=12.47 kW=100.0 kVAr=10.0 Vminpu=0.95 Vmaxpu=1.05 Daily=LoadShapeLoadDefault
New load.S11P Bus=11.1 Phases=1 Model=1 kV=12.47 kW=100.0 kVAr=10.0 Vminpu=0.95 Vmaxpu=1.05 Daily=LoadShapeLoadDefault
New load.S12P Bus=12.1 Phases=1 Model=1 kV=12.47 kW=100.0 kVAr=10.0 Vminpu=0.95 Vmaxpu=1.05 Daily=LoadShapeLoadDefault
New load.S13P Bus=13.1 Phases=1 Model=1 kV=12.47 kW=100.0 kVAr=10.0 Vminpu=0.95 Vmaxpu=1.05 Daily=LoadShapeLoadDefault
New load.S14P Bus=14.1 Phases=1 Model=1 kV=12.47 kW=100.0 kVAr=10.0 Vminpu=0.95 Vmaxpu=1.05 Daily=LoadShapeLoadDefault
New load.S15P Bus=15.1 Phases=1 Model=1 kV=12.47 kW=100.0 kVAr=10.0 Vminpu=0.95 Vmaxpu=1.05 Daily=LoadShapeLoadDefault
New load.S16P Bus=16.1 Phases=1 Model=1 kV=12.47 kW=100.0 kVAr=10.0 Vminpu=0.95 Vmaxpu=1.05 Daily=LoadShapeLoadDefault
New load.S17P Bus=17.1 Phases=1 Model=1 kV=12.47 kW=100.0 kVAr=10.0 Vminpu=0.95 Vmaxpu=1.05 Daily=LoadShapeLoadDefault
New load.S18P Bus=18.1 Phases=1 Model=1 kV=12.47 kW=100.0 kVAr=10.0 Vminpu=0.95 Vmaxpu=1.05 Daily=LoadShapeLoadDefault
New load.S19P Bus=19.1 Phases=1 Model=1 kV=12.47 kW=100.0 kVAr=10.0 Vminpu=0.95 Vmaxpu=1.05 Daily=LoadShapeLoadDefault
New load.S20P Bus=20.1 Phases=1 Model=1 kV=12.47 kW=100.0 kVAr=10.0 Vminpu=0.95 Vmaxpu=1.05 Daily=LoadShapeLoadDefault
New load.S21P Bus=21.1 Phases=1 Model=1 kV=12.47 kW=100.0 kVAr=10.0 Vminpu=0.95 Vmaxpu=1.05 Daily=LoadShapeLoadDefault
New load.S22P Bus=22.1 Phases=1 Model=1 kV=12.47 kW=100.0 kVAr=10.0 Vminpu=0.95 Vmaxpu=1.05 Daily=LoadShapeLoadDefault
New load.S23P Bus=23.1 Phases=1 Model=1 kV=12.47 kW=100.0 kVAr=10.0 Vminpu=0.95 Vmaxpu=1.05 Daily=LoadShapeLoadDefault
New load.S24P Bus=24.1 Phases=1 Model=1 kV=12.47 kW=100.0 kVAr=10.0 Vminpu=0.95 Vmaxpu=1.05 Daily=LoadShapeLoadDefault
New load.S25P Bus=25.1 Phases=1 Model=1 kV=12.47 kW=100.0 kVAr=10.0 Vminpu=0.95 Vmaxpu=1.05 Daily=LoadShapeLoadDefault
New load.S26P Bus=26.1 Phases=1 Model=1 kV=12.47 kW=100.0 kVAr=10.0 Vminpu=0.95 Vmaxpu=1.05 Daily=LoadShapeLoadDefault
New load.S27P Bus=27.1 Phases=1 Model=1 kV=12.47 kW=100.0 kVAr=10.0 Vminpu=0.95 Vmaxpu=1.05 Daily=LoadShapeLoadDefault
New load.S28P Bus=28.1 Phases=1 Model=1 kV=12.47 kW=100.0 kVAr=10.0 Vminpu=0.95 Vmaxpu=1.05 Daily=LoadShapeLoadDefault
New load.S29P Bus=29.1 Phases=1 Model=1 kV=12.47 kW=100.0 kVAr=10.0 Vminpu=0.95 Vmaxpu=1.05 Daily=LoadShapeLoadDefault
New load.S30P Bus=30.1 Phases=1 Model=1 kV=12.47 kW=100.0 kVAr=10.0 Vminpu=0.95 Vmaxpu=1.05 Daily=LoadShapeLoadDefault
New load.S31P Bus=31.1 Phases=1 Model=1 kV=12.47 kW=100.0 kVAr=10.0 Vminpu=0.95 Vmaxpu=1.05 Daily=LoadShapeLoadDefault
New load.S32P Bus=32.1 Phases=1 Model=1 kV=12.47 kW=100.0 kVAr=10.0 Vminpu=0.95 Vmaxpu=1.05 Daily=LoadShapeLoadDefault
New load.S33P Bus=33.1 Phases=1 Model=1 kV=12.47 kW=100.0 kVAr=10.0 Vminpu=0.95 Vmaxpu=1.05 Daily=LoadShapeLoadDefault
New load.S34P Bus=34.1 Phases=1 Model=1 kV=12.47 kW=100.0 kVAr=10.0 Vminpu=0.95 Vmaxpu=1.05 Daily=LoadShapeLoadDefault
New load.S35P Bus=35.1 Phases=1 Model=1 kV=12.47 kW=100.0 kVAr=10.0 Vminpu=0.95 Vmaxpu=1.05 Daily=LoadShapeLoadDefault
New load.S36P Bus=36.1 Phases=1 Model=1 kV=12.47 kW=100.0 kVAr=10.0 Vminpu=0.95 Vmaxpu=1.05 Daily=LoadShapeLoadDefault
New load.S37P Bus=37.1 Phases=1 Model=1 kV=12.47 kW=100.0 kVAr=10.0 Vminpu=0.95 Vmaxpu=1.05 Daily=LoadShapeLoadDefault
New load.S38P Bus=38.1 Phases=1 Model=1 kV=12.47 kW=100.0 kVAr=10.0 Vminpu=0.95 Vmaxpu=1.05 Daily=LoadShapeLoadDefault
New load.S39P Bus=39.1 Phases=1 Model=1 kV=12.47 kW=100.0 kVAr=10.0 Vminpu=0.95 Vmaxpu=1.05 Daily=LoadShapeLoadDefault
New load.S40P Bus=40.1 Phases=1 Model=1 kV=12.47 kW=100.0 kVAr=10.0 Vminpu=0.95 Vmaxpu=1.05 Daily=LoadShapeLoadDefault
New load.S41P Bus=41.1 Phases=1 Model=1 kV=12.47 kW=100.0 kVAr=10.0 Vminpu=0.95 Vmaxpu=1.05 Daily=LoadShapeLoadDefault
New load.S42P Bus=42.1 Phases=1 Model=1 kV=12.47 kW=100.0 kVAr=10.0 Vminpu=0.95 Vmaxpu=1.05 Daily=LoadShapeLoadDefault
New load.S43P Bus=43.1 Phases=1 Model=1 kV=12.47 kW=100.0 kVAr=10.0 Vminpu=0.95 Vmaxpu=1.05 Daily=LoadShapeLoadDefault
New load.S44P Bus=44.1 Phases=1 Model=1 kV=12.47 kW=100.0 kVAr=10.0 Vminpu=0.95 Vmaxpu=1.05 Daily=LoadShapeLoadDefault
New load.S45P Bus=45.1 Phases=1 Model=1 kV=12.47 kW=100.0 kVAr=10.0 Vminpu=0.95 Vmaxpu=1.05 Daily=LoadShapeLoadDefault
New load.S46P Bus=46.1 Phases=1 Model=1 kV=12.47 kW=100.0 kVAr=10.0 Vminpu=0.95 Vmaxpu=1.05 Daily=LoadShapeLoadDefault
New load.S47P Bus=47.1 Phases=1 Model=1 kV=12.47 kW=100.0 kVAr=10.0 Vminpu=0.95 Vmaxpu=1.05 Daily=LoadShapeLoadDefault
New load.S48P Bus=48.1 Phases=1 Model=1 kV=12.47 kW=100.0 kVAr=10.0 Vminpu=0.95 Vmaxpu=1.05 Daily=LoadShapeLoadDefault
New load.S49P Bus=49.1 Phases=1 Model=1 kV=12.47 kW=100.0 kVAr=10.0 Vminpu=0.95 Vmaxpu=1.05 Daily=LoadShapeLoadDefault
New load.S50P Bus=50.1 Phases=1 Model=1 kV=12.47 kW=100.0 kVAr=10.0 Vminpu=0.95 Vmaxpu=1.05 Daily=LoadShapeLoadDefault
New load.S51P Bus=51.1 Phases=1 Model=1 kV=12.47 kW=100.0 kVAr=10.0 Vminpu=0.95 Vmaxpu=1.05 Daily=LoadShapeLoadDefault
New load.S52P Bus=52.1 Phases=1 Model=1 kV=12.47 kW=100.0 kVAr=10.0 Vminpu=0.95 Vmaxpu=1.05 Daily=LoadShapeLoadDefault
New load.S53P Bus=53.1 Phases=1 Model=1 kV=12.47 kW=100.0 kVAr=10.0 Vminpu=0.95 Vmaxpu=1.05 Daily=LoadShapeLoadDefault
New load.S54P Bus=54.1 Phases=1 Model=1 kV=12.47 kW=100.0 kVAr=10.0 Vminpu=0.95 Vmaxpu=1.05 Daily=LoadShapeLoadDefault
New load.S55P Bus=55.1 Phases=1 Model=1 kV=12.47 kW=100.0 kVAr=10.0 Vminpu=0.95 Vmaxpu=1.05 Daily=LoadShapeLoadDefault
New load.S56P Bus=56.1 Phases=1 Model=1 kV=12.47 kW=100.0 kVAr=10.0 Vminpu=0.95 Vmaxpu=1.05 Daily=LoadShapeLoadDefault
New load.S57P Bus=57.1 Phases=1 Model=1 kV=12.47 kW=100.0 kVAr=10.0 Vminpu=0.95 Vmaxpu=1.05 Daily=LoadShapeLoadDefault
New load.S58P Bus=58.1 Phases=1 Model=1 kV=12.47 kW=100.0 kVAr=10.0 Vminpu=0.95 Vmaxpu=1.05 Daily=LoadShapeLoadDefault
New load.S59P Bus=59.1 Phases=1 Model=1 kV=12.47 kW=100.0 kVAr=10.0 Vminpu=0.95 Vmaxpu=1.05 Daily=LoadShapeLoadDefault
New load.S60P Bus=60.1 Phases=1 Model=1 kV=12.47 kW=100.0 kVAr=10.0 Vminpu=0.95 Vmaxpu=1.05 Daily=LoadShapeLoadDefault
New load.S61P Bus=61.1 Phases=1 Model=1 kV=12.47 kW=100.0 kVAr=10.0 Vminpu=0.95 Vmaxpu=1.05 Daily=LoadShapeLoadDefault
New load.S62P Bus=62.1 Phases=1 Model=1 kV=12.47 kW=100.0 kVAr=10.0 Vminpu=0.95 Vmaxpu=1.05 Daily=LoadShapeLoadDefault
New load.S63P Bus=63.1 Phases=1 Model=1 kV=12.47 kW=100.0 kVAr=10.0 Vminpu=0.95 Vmaxpu=1.05 Daily=LoadShapeLoadDefault
New load.S64P Bus=64.1 Phases=1 Model=1 kV=12.47 kW=100.0 kVAr=10.0 Vminpu=0.95 Vmaxpu=1.05 Daily=LoadShapeLoadDefault
New load.S65P Bus=65.1 Phases=1 Model=1 kV=12.47 kW=100.0 kVAr=10.0 Vminpu=0.95 Vmaxpu=1.05 Daily=LoadShapeLoadDefault
New load.S66P Bus=66.1 Phases=1 Model=1 kV=12.47 kW=100.0 kVAr=10.0 Vminpu=0.95 Vmaxpu=1.05 Daily=LoadShapeLoadDefault
New load.S67P Bus=67.1 Phases=1 Model=1 kV=12.47 kW=100.0 kVAr=10.0 Vminpu=0.95 Vmaxpu=1.05 Daily=LoadShapeLoadDefault
New load.S68P Bus=68.1 Phases=1 Model=1 kV=12.47 kW=100.0 kVAr=10.0 Vminpu=0.95 Vmaxpu=1.05 Daily=LoadShapeLoadDefault
New load.S69P Bus=69.1 Phases=1 Model=1 kV=12.47 kW=100.0 kVAr=10.0 Vminpu=0.95 Vmaxpu=1.05 Daily=LoadShapeLoadDefault
New load.S70P Bus=70.1 Phases=1 Model=1 kV=12.47 kW=100.0 kVAr=10.0 Vminpu=0.95 Vmaxpu=1.05 Daily=LoadShapeLoadDefault
New load.S71P Bus=71.1 Phases=1 Model=1 kV=12.47 kW=100.0 kVAr=10.0 Vminpu=0.95 Vmaxpu=1.05 Daily=LoadShapeLoadDefault
New load.S72P Bus=72.1 Phases=1 Model=1 kV=12.47 kW=100.0 kVAr=10.0 Vminpu=0.95 Vmaxpu=1.05 Daily=LoadShapeLoadDefault
New load.S73P Bus=73.1 Phases=1 Model=1 kV=12.47 kW=100.0 kVAr=10.0 Vminpu=0.95 Vmaxpu=1.05 Daily=LoadShapeLoadDefault
New load.S74P Bus=74.1 Phases=1 Model=1 kV=12.47 kW=100.0 kVAr=10.0 Vminpu=0.95 Vmaxpu=1.05 Daily=LoadShapeLoadDefault
New load.S75P Bus=75.1 Phases=1 Model=1 kV=12.47 kW=100.0 kVAr=10.0 Vminpu=0.95 Vmaxpu=1.05 Daily=LoadShapeLoadDefault
New load.S76P Bus=76.1 Phases=1 Model=1 kV=12.47 kW=100.0 kVAr=10.0 Vminpu=0.95 Vmaxpu=1.05 Daily=LoadShapeLoadDefault
New load.S77P Bus=77.1 Phases=1 Model=1 kV=12.47 kW=100.0 kVAr=10.0 Vminpu=0.95 Vmaxpu=1.05 Daily=LoadShapeLoadDefault
New load.S78P Bus=78.1 Phases=1 Model=1 kV=12.47 kW=100.0 kVAr=10.0 Vminpu=0.95 Vmaxpu=1.05 Daily=LoadShapeLoadDefault
New load.S79P Bus=79.1 Phases=1 Model=1 kV=12.47 kW=100.0 kVAr=10.0 Vminpu=0.95 Vmaxpu=1.05 Daily=LoadShapeLoadDefault
New load.S80P Bus=80.1 Phases=1 Model=1 kV=12.47 kW=100.0 kVAr=10.0 Vminpu=0.95 Vmaxpu=1.05 Daily=LoadShapeLoadDefault
New load.S81P Bus=81.1 Phases=1 Model=1 kV=12.47 kW=100.0 kVAr=10.0 Vminpu=0.95 Vmaxpu=1.05 Daily=LoadShapeLoadDefault
New load.S82P Bus=82.1 Phases=1 Model=1 kV=12.47 kW=100.0 kVAr=10.0 Vminpu=0.95 Vmaxpu=1.05 Daily=LoadShapeLoadDefault
New load.S83P Bus=83.1 Phases=1 Model=1 kV=12.47 kW=100.0 kVAr=10.0 Vminpu=0.95 Vmaxpu=1.05 Daily=LoadShapeLoadDefault
New load.S84P Bus=84.1 Phases=1 Model=1 kV=12.47 kW=100.0 kVAr=10.0 Vminpu=0.95 Vmaxpu=1.05 Daily=LoadShapeLoadDefault
New load.S85P Bus=85.1 Phases=1 Model=1 kV=12.47 kW=100.0 kVAr=10.0 Vminpu=0.95 Vmaxpu=1.05 Daily=LoadShapeLoadDefault
New load.S86P Bus=86.1 Phases=1 Model=1 kV=12.47 kW=100.0 kVAr=10.0 Vminpu=0.95 Vmaxpu=1.05 Daily=LoadShapeLoadDefault
New load.S87P Bus=87.1 Phases=1 Model=1 kV=12.47 kW=100.0 kVAr=10.0 Vminpu=0.95 Vmaxpu=1.05 Daily=LoadShapeLoadDefault
New load.S88P Bus=88.1 Phases=1 Model=1 kV=12.47 kW=100.0 kVAr=10.0 Vminpu=0.95 Vmaxpu=1.05 Daily=LoadShapeLoadDefault
New load.S89P Bus=89.1 Phases=1 Model=1 kV=12.47 kW=100.0 kVAr=10.0 Vminpu=0.95 Vmaxpu=1.05 Daily=LoadShapeLoadDefault
New load.S90P Bus=90.1 Phases=1 Model=1 kV=12.47 kW=100.0 kVAr=10.0 Vminpu=0.95 Vmaxpu=1.05 Daily=LoadShapeLoadDefault
New load.S91P Bus=91.1 Phases=1 Model=1 kV=12.47 kW=100.0 kVAr=10.0 Vminpu=0.95 Vmaxpu=1.05 Daily=LoadShapeLoadDefault
New load.S92P Bus=92.1 Phases=1 Model=1 kV=12.47 kW=100.0 kVAr=10.0 Vminpu=0.95 Vmaxpu=1.05 Daily=LoadShapeLoadDefault
New load.S93P Bus=93.1 Phases=1 Model=1 kV=12.47 kW=100.0 kVAr=10.0 Vminpu=0.95 Vmaxpu=1.05 Daily=LoadShapeLoadDefault
New load.S94P Bus=94.1 Phases=1 Model=1 kV=12.47 kW=100.0 kVAr=10.0 Vminpu=0.95 Vmaxpu=1.05 Daily=LoadShapeLoadDefault
New load.S95P Bus=95.1 Phases=1 Model=1 kV=12.47 kW=100.0 kVAr=10.0 Vminpu=0.95 Vmaxpu=1.05 Daily=LoadShapeLoadDefault
New load.S96P Bus=96.1 Phases=1 Model=1 kV=12.47 kW=100.0 kVAr=10.0 Vminpu=0.95 Vmaxpu=1.05 Daily=LoadShapeLoadDefault
New load.S97P Bus=97.1 Phases=1 Model=1 kV=12.47 kW=100.0 kVAr=10.0 Vminpu=0.95 Vmaxpu=1.05 Daily=LoadShapeLoadDefault
New load.S98P Bus=98.1 Phases=1 Model=1 kV=12.47 kW=100.0 kVAr=10.0 Vminpu=0.95 Vmaxpu=1.05 Daily=LoadShapeLoadDefault
New load.S99P Bus=99.1 Phases=1 Model=1 kV=12.47 kW=100.0 kVAr=10.0 Vminpu=0.95 Vmaxpu=1.05 Daily=LoadShapeLoadDefault
New load.S100P Bus=100.1 Phases=1 Model=1 kV=12.47 kW=100.0 kVAr=10.0 Vminpu=0.95 Vmaxpu=1.05 Daily=LoadShapeLoadDefault
New load.S101P Bus=101.1 Phases=1 Model=1 kV=12.47 kW=100.0 kVAr=10.0 Vminpu=0.95 Vmaxpu=1.05 Daily=LoadShapeLoadDefault
New load.S1001P Bus=1001.1 Phases=1 Model=1 kV=12.47 kW=100.0 kVAr=10.0 Vminpu=0.95 Vmaxpu=1.05 Daily=LoadShapeLoadDefault
New load.S1002P Bus=1002.1 Phases=1 Model=1 kV=12.47 kW=100.0 kVAr=10.0 Vminpu=0.95 Vmaxpu=1.05 Daily=LoadShapeLoadDefault
New load.S1003P Bus=1003.1 Phases=1 Model=1 kV=12.47 kW=100.0 kVAr=10.0 Vminpu=0.95 Vmaxpu=1.05 Daily=LoadShapeLoadDefault
New load.S1004P Bus=1004.1 Phases=1 Model=1 kV=12.47 kW=100.0 kVAr=10.0 Vminpu=0.95 Vmaxpu=1.05 Daily=LoadShapeLoadDefault
New load.S1005P Bus=1005.1 Phases=1 Model=1 kV=12.47 kW=100.0 kVAr=10.0 Vminpu=0.95 Vmaxpu=1.05 Daily=LoadShapeLoadDefault
New load.S1006P Bus=1006.1 Phases=1 Model=1 kV=12.47 kW=100.0 kVAr=10.0 Vminpu=0.95 Vmaxpu=1.05 Daily=LoadShapeLoadDefault
New load.S1007P Bus=1007.1 Phases=1 Model=1 kV=12.47 kW=100.0 kVAr=10.0 Vminpu=0.95 Vmaxpu=1.05 Daily=LoadShapeLoadDefault
New load.S1008P Bus=1008.1 Phases=1 Model=1 kV=12.47 kW=100.0 kVAr=10.0 Vminpu=0.95 Vmaxpu=1.05 Daily=LoadShapeLoadDefault
New load.S1009P Bus=1009.1 Phases=1 Model=1 kV=12.47 kW=100.0 kVAr=10.0 Vminpu=0.95 Vmaxpu=1.05 Daily=LoadShapeLoadDefault
New load.S1010P Bus=1010.1 Phases=1 Model=1 kV=12.47 kW=100.0 kVAr=10.0 Vminpu=0.95 Vmaxpu=1.05 Daily=LoadShapeLoadDefault
New load.S1011P Bus=1011.1 Phases=1 Model=1 kV=12.47 kW=100.0 kVAr=10.0 Vminpu=0.95 Vmaxpu=1.05 Daily=LoadShapeLoadDefault
New load.S1012P Bus=1012.1 Phases=1 Model=1 kV=12.47 kW=100.0 kVAr=10.0 Vminpu=0.95 Vmaxpu=1.05 Daily=LoadShapeLoadDefault
New load.S1013P Bus=1013.1 Phases=1 Model=1 kV=12.47 kW=100.0 kVAr=10.0 Vminpu=0.95 Vmaxpu=1.05 Daily=LoadShapeLoadDefault
New load.S1014P Bus=1014.1 Phases=1 Model=1 kV=12.47 kW=100.0 kVAr=10.0 Vminpu=0.95 Vmaxpu=1.05 Daily=LoadShapeLoadDefault
New load.S1015P Bus=1015.1 Phases=1 Model=1 kV=12.47 kW=100.0 kVAr=10.0 Vminpu=0.95 Vmaxpu=1.05 Daily=LoadShapeLoadDefault
New load.S1016P Bus=1016.1 Phases=1 Model=1 kV=12.47 kW=100.0 kVAr=10.0 Vminpu=0.95 Vmaxpu=1.05 Daily=LoadShapeLoadDefault
New load.S1017P Bus=1017.1 Phases=1 Model=1 kV=12.47 kW=100.0 kVAr=10.0 Vminpu=0.95 Vmaxpu=1.05 Daily=LoadShapeLoadDefault
New load.S1018P Bus=1018.1 Phases=1 Model=1 kV=12.47 kW=100.0 kVAr=10.0 Vminpu=0.95 Vmaxpu=1.05 Daily=LoadShapeLoadDefault
New load.S1019P Bus=1019.1 Phases=1 Model=1 kV=12.47 kW=100.0 kVAr=10.0 Vminpu=0.95 Vmaxpu=1.05 Daily=LoadShapeLoadDefault
New load.S1020P Bus=1020.1 Phases=1 Model=1 kV=12.47 kW=100.0 kVAr=10.0 Vminpu=0.95 Vmaxpu=1.05 Daily=LoadShapeLoadDefault
New load.S1021P Bus=1021.1 Phases=1 Model=1 kV=12.47 kW=100.0 kVAr=10.0 Vminpu=0.95 Vmaxpu=1.05 Daily=LoadShapeLoadDefault
New load.S1022P Bus=1022.1 Phases=1 Model=1 kV=12.47 kW=100.0 kVAr=10.0 Vminpu=0.95 Vmaxpu=1.05 Daily=LoadShapeLoadDefault
New load.S1023P Bus=1023.1 Phases=1 Model=1 kV=12.47 kW=100.0 kVAr=10.0 Vminpu=0.95 Vmaxpu=1.05 Daily=LoadShapeLoadDefault
New load.S1024P Bus=1024.1 Phases=1 Model=1 kV=12.47 kW=100.0 kVAr=10.0 Vminpu=0.95 Vmaxpu=1.05 Daily=LoadShapeLoadDefault
New load.S1025P Bus=1025.1 Phases=1 Model=1 kV=12.47 kW=100.0 kVAr=10.0 Vminpu=0.95 Vmaxpu=1.05 Daily=LoadShapeLoadDefault
New load.S1026P Bus=1026.1 Phases=1 Model=1 kV=12.47 kW=100.0 kVAr=10.0 Vminpu=0.95 Vmaxpu=1.05 Daily=LoadShapeLoadDefault
New load.S1027P Bus=1027.1 Phases=1 Model=1 kV=12.47 kW=100.0 kVAr=10.0 Vminpu=0.95 Vmaxpu=1.05 Daily=LoadShapeLoadDefault
New load.S1028P Bus=1028.1 Phases=1 Model=1 kV=12.47 kW=100.0 kVAr=10.0 Vminpu=0.95 Vmaxpu=1.05 Daily=LoadShapeLoadDefault
New load.S1029P Bus=1029.1 Phases=1 Model=1 kV=12.47 kW=100.0 kVAr=10.0 Vminpu=0.95 Vmaxpu=1.05 Daily=LoadShapeLoadDefault
New load.S1030P Bus=1030.1 Phases=1 Model=1 kV=12.47 kW=100.0 kVAr=10.0 Vminpu=0.95 Vmaxpu=1.05 Daily=LoadShapeLoadDefault
New load.S1031P Bus=1031.1 Phases=1 Model=1 kV=12.47 kW=100.0 kVAr=10.0 Vminpu=0.95 Vmaxpu=1.05 Daily=LoadShapeLoadDefault
New load.S1032P Bus=1032.1 Phases=1 Model=1 kV=12.47 kW=100.0 kVAr=10.0 Vminpu=0.95 Vmaxpu=1.05 Daily=LoadShapeLoadDefault
New load.S1033P Bus=1033.1 Phases=1 Model=1 kV=12.47 kW=100.0 kVAr=10.0 Vminpu=0.95 Vmaxpu=1.05 Daily=LoadShapeLoadDefault
New load.S1034P Bus=1034.1 Phases=1 Model=1 kV=12.47 kW=100.0 kVAr=10.0 Vminpu=0.95 Vmaxpu=1.05 Daily=LoadShapeLoadDefault
New load.S1035P Bus=1035.1 Phases=1 Model=1 kV=12.47 kW=100.0 kVAr=10.0 Vminpu=0.95 Vmaxpu=1.05 Daily=LoadShapeLoadDefault
New load.S1036P Bus=1036.1 Phases=1 Model=1 kV=12.47 kW=100.0 kVAr=10.0 Vminpu=0.95 Vmaxpu=1.05 Daily=LoadShapeLoadDefault
New load.S1037P Bus=1037.1 Phases=1 Model=1 kV=12.47 kW=100.0 kVAr=10.0 Vminpu=0.95 Vmaxpu=1.05 Daily=LoadShapeLoadDefault
New load.S1038P Bus=1038.1 Phases=1 Model=1 kV=12.47 kW=100.0 kVAr=10.0 Vminpu=0.95 Vmaxpu=1.05 Daily=LoadShapeLoadDefault
New load.S1039P Bus=1039.1 Phases=1 Model=1 kV=12.47 kW=100.0 kVAr=10.0 Vminpu=0.95 Vmaxpu=1.05 Daily=LoadShapeLoadDefault
New load.S1040P Bus=1040.1 Phases=1 Model=1 kV=12.47 kW=100.0 kVAr=10.0 Vminpu=0.95 Vmaxpu=1.05 Daily=LoadShapeLoadDefault
New load.S1041P Bus=1041.1 Phases=1 Model=1 kV=12.47 kW=100.0 kVAr=10.0 Vminpu=0.95 Vmaxpu=1.05 Daily=LoadShapeLoadDefault
New load.S1042P Bus=1042.1 Phases=1 Model=1 kV=12.47 kW=100.0 kVAr=10.0 Vminpu=0.95 Vmaxpu=1.05 Daily=LoadShapeLoadDefault
New load.S1043P Bus=1043.1 Phases=1 Model=1 kV=12.47 kW=100.0 kVAr=10.0 Vminpu=0.95 Vmaxpu=1.05 Daily=LoadShapeLoadDefault
New load.S1044P Bus=1044.1 Phases=1 Model=1 kV=12.47 kW=100.0 kVAr=10.0 Vminpu=0.95 Vmaxpu=1.05 Daily=LoadShapeLoadDefault
New load.S1045P Bus=1045.1 Phases=1 Model=1 kV=12.47 kW=100.0 kVAr=10.0 Vminpu=0.95 Vmaxpu=1.05 Daily=LoadShapeLoadDefault
New load.S1046P Bus=1046.1 Phases=1 Model=1 kV=12.47 kW=100.0 kVAr=10.0 Vminpu=0.95 Vmaxpu=1.05 Daily=LoadShapeLoadDefault
New load.S1047P Bus=1047.1 Phases=1 Model=1 kV=12.47 kW=100.0 kVAr=10.0 Vminpu=0.95 Vmaxpu=1.05 Daily=LoadShapeLoadDefault
New load.S1048P Bus=1048.1 Phases=1 Model=1 kV=12.47 kW=100.0 kVAr=10.0 Vminpu=0.95 Vmaxpu=1.05 Daily=LoadShapeLoadDefault
New load.S1049P Bus=1049.1 Phases=1 Model=1 kV=12.47 kW=100.0 kVAr=10.0 Vminpu=0.95 Vmaxpu=1.05 Daily=LoadShapeLoadDefault
New load.S1050P Bus=1050.1 Phases=1 Model=1 kV=12.47 kW=100.0 kVAr=10.0 Vminpu=0.95 Vmaxpu=1.05 Daily=LoadShapeLoadDefault
New load.S1051P Bus=1051.1 Phases=1 Model=1 kV=12.47 kW=100.0 kVAr=10.0 Vminpu=0.95 Vmaxpu=1.05 Daily=LoadShapeLoadDefault
New load.S1052P Bus=1052.1 Phases=1 Model=1 kV=12.47 kW=100.0 kVAr=10.0 Vminpu=0.95 Vmaxpu=1.05 Daily=LoadShapeLoadDefault
New load.S1053P Bus=1053.1 Phases=1 Model=1 kV=12.47 kW=100.0 kVAr=10.0 Vminpu=0.95 Vmaxpu=1.05 Daily=LoadShapeLoadDefault
New load.S1054P Bus=1054.1 Phases=1 Model=1 kV=12.47 kW=100.0 kVAr=10.0 Vminpu=0.95 Vmaxpu=1.05 Daily=LoadShapeLoadDefault
New load.S1055P Bus=1055.1 Phases=1 Model=1 kV=12.47 kW=100.0 kVAr=10.0 Vminpu=0.95 Vmaxpu=1.05 Daily=LoadShapeLoadDefault
New load.S1056P Bus=1056.1 Phases=1 Model=1 kV=12.47 kW=100.0 kVAr=10.0 Vminpu=0.95 Vmaxpu=1.05 Daily=LoadShapeLoadDefault
New load.S1057P Bus=1057.1 Phases=1 Model=1 kV=12.47 kW=100.0 kVAr=10.0 Vminpu=0.95 Vmaxpu=1.05 Daily=LoadShapeLoadDefault
New load.S1058P Bus=1058.1 Phases=1 Model=1 kV=12.47 kW=100.0 kVAr=10.0 Vminpu=0.95 Vmaxpu=1.05 Daily=LoadShapeLoadDefault
New load.S1059P Bus=1059.1 Phases=1 Model=1 kV=12.47 kW=100.0 kVAr=10.0 Vminpu=0.95 Vmaxpu=1.05 Daily=LoadShapeLoadDefault
New load.S1060P Bus=1060.1 Phases=1 Model=1 kV=12.47 kW=100.0 kVAr=10.0 Vminpu=0.95 Vmaxpu=1.05 Daily=LoadShapeLoadDefault
New load.S1061P Bus=1061.1 Phases=1 Model=1 kV=12.47 kW=100.0 kVAr=10.0 Vminpu=0.95 Vmaxpu=1.05 Daily=LoadShapeLoadDefault
New load.S1062P Bus=1062.1 Phases=1 Model=1 kV=12.47 kW=100.0 kVAr=10.0 Vminpu=0.95 Vmaxpu=1.05 Daily=LoadShapeLoadDefault
New load.S1063P Bus=1063.1 Phases=1 Model=1 kV=12.47 kW=100.0 kVAr=10.0 Vminpu=0.95 Vmaxpu=1.05 Daily=LoadShapeLoadDefault
New load.S1064P Bus=1064.1 Phases=1 Model=1 kV=12.47 kW=100.0 kVAr=10.0 Vminpu=0.95 Vmaxpu=1.05 Daily=LoadShapeLoadDefault
New load.S1065P Bus=1065.1 Phases=1 Model=1 kV=12.47 kW=100.0 kVAr=10.0 Vminpu=0.95 Vmaxpu=1.05 Daily=LoadShapeLoadDefault
New load.S1066P Bus=1066.1 Phases=1 Model=1 kV=12.47 kW=100.0 kVAr=10.0 Vminpu=0.95 Vmaxpu=1.05 Daily=LoadShapeLoadDefault
New load.S1067P Bus=1067.1 Phases=1 Model=1 kV=12.47 kW=100.0 kVAr=10.0 Vminpu=0.95 Vmaxpu=1.05 Daily=LoadShapeLoadDefault
New load.S1068P Bus=1068.1 Phases=1 Model=1 kV=12.47 kW=100.0 kVAr=10.0 Vminpu=0.95 Vmaxpu=1.05 Daily=LoadShapeLoadDefault
New load.S1069P Bus=1069.1 Phases=1 Model=1 kV=12.47 kW=100.0 kVAr=10.0 Vminpu=0.95 Vmaxpu=1.05 Daily=LoadShapeLoadDefault
New load.S1070P Bus=1070.1 Phases=1 Model=1 kV=12.47 kW=100.0 kVAr=10.0 Vminpu=0.95 Vmaxpu=1.05 Daily=LoadShapeLoadDefault
New load.S1071P Bus=1071.1 Phases=1 Model=1 kV=12.47 kW=100.0 kVAr=10.0 Vminpu=0.95 Vmaxpu=1.05 Daily=LoadShapeLoadDefault
New load.S1072P Bus=1072.1 Phases=1 Model=1 kV=12.47 kW=100.0 kVAr=10.0 Vminpu=0.95 Vmaxpu=1.05 Daily=LoadShapeLoadDefault
New load.S1073P Bus=1073.1 Phases=1 Model=1 kV=12.47 kW=100.0 kVAr=10.0 Vminpu=0.95 Vmaxpu=1.05 Daily=LoadShapeLoadDefault
New load.S1074P Bus=1074.1 Phases=1 Model=1 kV=12.47 kW=100.0 kVAr=10.0 Vminpu=0.95 Vmaxpu=1.05 Daily=LoadShapeLoadDefault
New load.S1075P Bus=1075.1 Phases=1 Model=1 kV=12.47 kW=100.0 kVAr=10.0 Vminpu=0.95 Vmaxpu=1.05 Daily=LoadShapeLoadDefault
New load.S1076P Bus=1076.1 Phases=1 Model=1 kV=12.47 kW=100.0 kVAr=10.0 Vminpu=0.95 Vmaxpu=1.05 Daily=LoadShapeLoadDefault
New load.S1077P Bus=1077.1 Phases=1 Model=1 kV=12.47 kW=100.0 kVAr=10.0 Vminpu=0.95 Vmaxpu=1.05 Daily=LoadShapeLoadDefault
New load.S1078P Bus=1078.1 Phases=1 Model=1 kV=12.47 kW=100.0 kVAr=10.0 Vminpu=0.95 Vmaxpu=1.05 Daily=LoadShapeLoadDefault
New load.S1079P Bus=1079.1 Phases=1 Model=1 kV=12.47 kW=100.0 kVAr=10.0 Vminpu=0.95 Vmaxpu=1.05 Daily=LoadShapeLoadDefault
New load.S1080P Bus=1080.1 Phases=1 Model=1 kV=12.47 kW=100.0 kVAr=10.0 Vminpu=0.95 Vmaxpu=1.05 Daily=LoadShapeLoadDefault
New load.S1081P Bus=1081.1 Phases=1 Model=1 kV=12.47 kW=100.0 kVAr=10.0 Vminpu=0.95 Vmaxpu=1.05 Daily=LoadShapeLoadDefault
New load.S1082P Bus=1082.1 Phases=1 Model=1 kV=12.47 kW=100.0 kVAr=10.0 Vminpu=0.95 Vmaxpu=1.05 Daily=LoadShapeLoadDefault
New load.S1083P Bus=1083.1 Phases=1 Model=1 kV=12.47 kW=100.0 kVAr=10.0 Vminpu=0.95 Vmaxpu=1.05 Daily=LoadShapeLoadDefault
New load.S1084P Bus=1084.1 Phases=1 Model=1 kV=12.47 kW=100.0 kVAr=10.0 Vminpu=0.95 Vmaxpu=1.05 Daily=LoadShapeLoadDefault
New load.S1085P Bus=1085.1 Phases=1 Model=1 kV=12.47 kW=100.0 kVAr=10.0 Vminpu=0.95 Vmaxpu=1.05 Daily=LoadShapeLoadDefault
New load.S1086P Bus=1086.1 Phases=1 Model=1 kV=12.47 kW=100.0 kVAr=10.0 Vminpu=0.95 Vmaxpu=1.05 Daily=LoadShapeLoadDefault
New load.S1087P Bus=1087.1 Phases=1 Model=1 kV=12.47 kW=100.0 kVAr=10.0 Vminpu=0.95 Vmaxpu=1.05 Daily=LoadShapeLoadDefault
New load.S1088P Bus=1088.1 Phases=1 Model=1 kV=12.47 kW=100.0 kVAr=10.0 Vminpu=0.95 Vmaxpu=1.05 Daily=LoadShapeLoadDefault
New load.S1089P Bus=1089.1 Phases=1 Model=1 kV=12.47 kW=100.0 kVAr=10.0 Vminpu=0.95 Vmaxpu=1.05 Daily=LoadShapeLoadDefault
New load.S1090P Bus=1090.1 Phases=1 Model=1 kV=12.47 kW=100.0 kVAr=10.0 Vminpu=0.95 Vmaxpu=1.05 Daily=LoadShapeLoadDefault
New load.S1091P Bus=1091.1 Phases=1 Model=1 kV=12.47 kW=100.0 kVAr=10.0 Vminpu=0.95 Vmaxpu=1.05 Daily=LoadShapeLoadDefault
New load.S1092P Bus=1092.1 Phases=1 Model=1 kV=12.47 kW=100.0 kVAr=10.0 Vminpu=0.95 Vmaxpu=1.05 Daily=LoadShapeLoadDefault
New load.S1093P Bus=1093.1 Phases=1 Model=1 kV=12.47 kW=100.0 kVAr=10.0 Vminpu=0.95 Vmaxpu=1.05 Daily=LoadShapeLoadDefault
New load.S1094P Bus=1094.1 Phases=1 Model=1 kV=12.47 kW=100.0 kVAr=10.0 Vminpu=0.95 Vmaxpu=1.05 Daily=LoadShapeLoadDefault
New load.S1095P Bus=1095.1 Phases=1 Model=1 kV=12.47 kW=100.0 kVAr=10.0 Vminpu=0.95 Vmaxpu=1.05 Daily=LoadShapeLoadDefault
New load.S1096P Bus=1096.1 Phases=1 Model=1 kV=12.47 kW=100.0 kVAr=10.0 Vminpu=0.95 Vmaxpu=1.05 Daily=LoadShapeLoadDefault
New load.S1097P Bus=1097.1 Phases=1 Model=1 kV=12.47 kW=100.0 kVAr=10.0 Vminpu=0.95 Vmaxpu=1.05 Daily=LoadShapeLoadDefault
New load.S1098P Bus=1098.1 Phases=1 Model=1 kV=12.47 kW=100.0 kVAr=10.0 Vminpu=0.95 Vmaxpu=1.05 Daily=LoadShapeLoadDefault
New load.S1099P Bus=1099.1 Phases=1 Model=1 kV=12.47 kW=100.0 kVAr=10.0 Vminpu=0.95 Vmaxpu=1.05 Daily=LoadShapeLoadDefault
New load.S1100P Bus=1100.1 Phases=1 Model=1 kV=12.47 kW=100.0 kVAr=10.0 Vminpu=0.95 Vmaxpu=1.05 Daily=LoadShapeLoadDefault
...
